/*--------------------------------*- C++ -*----------------------------------*\
| =========                 |                                                 |
| \\      /  F ield         | OpenFOAM: The Open Source CFD Toolbox           |
|  \\    /   O peration     | Version:  4.x                                   |
|   \\  /    A nd           | Web:      www.OpenFOAM.org                      |
|    \\/     M anipulation  |                                                 |
\*---------------------------------------------------------------------------*/
FoamFile
{
    version     2.0;
    format      ascii;
    class       volScalarField;
    object      nut;
}
// * * * * * * * * * * * * * * * * * * * * * * * * * * * * * * * * * * * * * //

dimensions      [0 2 -1 0 0 0 0];

internalField   uniform 6e-05;

boundaryField
{
    inlet
    {
        type            fixedValue;
        value           uniform 6e-05;
    }

    secondaryInlet
    {
        type            fixedValue;
        value           uniform 6e-05;
    }

    fuelInjector
    {
        type            fixedValue;
        value           uniform 6e-05;
    }

    outlet
    {
        type            zeroGradient;
    }

    top
    {
        type            fixedValue;
        value           uniform 0;
    }
    frontWall
    {
        type            fixedValue;
        value           uniform 0;
    }

    axis
    {
        type            empty;
    }
    front
    {
        type            wedge;
    }

    back
    {
        type            wedge;
    }

}

// ************************************************************************* //
